Version 4
SHEET 1 1396 1264
WIRE -512 -384 -640 -384
WIRE -416 -384 -512 -384
WIRE -256 -384 -416 -384
WIRE -192 -384 -256 -384
WIRE -80 -384 -112 -384
WIRE 144 -384 128 -384
WIRE 288 -384 224 -384
WIRE 432 -384 352 -384
WIRE 560 -384 432 -384
WIRE 688 -384 560 -384
WIRE 768 -384 688 -384
WIRE -256 -352 -256 -384
WIRE -256 -352 -304 -352
WIRE -208 -352 -256 -352
WIRE -80 -352 -80 -384
WIRE 128 -352 128 -384
WIRE 432 -352 432 -384
WIRE 560 -352 560 -384
WIRE -640 -336 -640 -384
WIRE -416 -336 -416 -384
WIRE 688 -336 688 -384
WIRE -304 -288 -304 -352
WIRE -208 -288 -208 -352
WIRE -416 -240 -416 -272
WIRE -80 -240 -80 -272
WIRE 128 -240 128 -272
WIRE 432 -240 432 -288
WIRE 560 -240 560 -272
WIRE 688 -224 688 -256
WIRE -640 -192 -640 -256
WIRE -304 -160 -304 -224
WIRE -256 -160 -304 -160
WIRE -208 -160 -208 -208
WIRE -208 -160 -256 -160
WIRE -256 -128 -256 -160
WIRE -208 -128 -256 -128
WIRE -80 -128 -80 -160
WIRE -80 -128 -144 -128
WIRE -80 -80 -80 -128
WIRE 48 -80 -80 -80
WIRE 48 -64 48 -80
WIRE -80 -32 -80 -80
WIRE 768 -16 768 -384
WIRE 768 -16 624 -16
WIRE 48 16 48 0
WIRE -240 48 -288 48
WIRE -160 48 -240 48
WIRE -128 48 -160 48
WIRE 624 48 624 -16
WIRE -160 80 -160 48
WIRE 768 96 768 -16
WIRE -240 112 -240 48
WIRE -288 128 -288 48
WIRE -80 128 -80 64
WIRE 48 128 48 96
WIRE 48 128 -80 128
WIRE -832 160 -896 160
WIRE -736 160 -768 160
WIRE -512 160 -512 -384
WIRE -160 176 -160 144
WIRE -80 176 -80 128
WIRE -80 176 -160 176
WIRE 384 192 288 192
WIRE 624 192 624 128
WIRE 624 192 576 192
WIRE -896 224 -896 160
WIRE -848 224 -896 224
WIRE -736 224 -736 160
WIRE -736 224 -768 224
WIRE -704 224 -704 48
WIRE -704 224 -736 224
WIRE -672 224 -704 224
WIRE -240 224 -240 192
WIRE -80 224 -80 176
WIRE -80 224 -240 224
WIRE -80 240 -80 224
WIRE -80 240 -176 240
WIRE -288 256 -288 208
WIRE -288 256 -352 256
WIRE -896 288 -896 224
WIRE -672 288 -896 288
WIRE 288 288 192 288
WIRE 384 288 288 288
WIRE 768 288 768 176
WIRE 768 288 576 288
WIRE -80 320 -80 240
WIRE -816 352 -912 352
WIRE -672 352 -816 352
WIRE 288 352 288 288
WIRE 768 352 768 288
WIRE 192 368 192 288
WIRE -912 384 -912 352
WIRE -816 384 -816 352
WIRE -304 384 -352 384
WIRE -272 384 -304 384
WIRE -176 384 -176 240
WIRE -176 384 -192 384
WIRE -672 416 -720 416
WIRE -304 432 -304 384
WIRE 192 480 192 432
WIRE 288 480 288 432
WIRE 768 480 768 416
WIRE -912 496 -912 448
WIRE -80 496 -80 400
WIRE -816 512 -816 464
WIRE -720 512 -720 416
WIRE -720 512 -816 512
WIRE -512 512 -512 480
WIRE -816 528 -816 512
WIRE -304 544 -304 496
WIRE 768 592 768 544
WIRE -816 624 -816 592
FLAG -80 496 0
FLAG -640 -192 0
FLAG -416 -240 0
FLAG 128 -240 0
FLAG 432 -240 0
FLAG 560 -240 0
FLAG 560 -384 Vout
FLAG -512 512 0
FLAG -816 624 0
FLAG -304 544 0
FLAG -704 48 FB
FLAG -912 496 0
FLAG 288 480 0
FLAG -816 352 Vref
FLAG 288 192 Vref
FLAG 192 480 0
FLAG 192 288 FB
FLAG 768 592 0
FLAG -80 -128 Vd
FLAG -640 -384 Vin
FLAG 688 -224 0
SYMBOL ind2 -96 -368 R0
SYMATTR InstName L1
SYMATTR Value 6µ
SYMATTR Type ind
SYMBOL ind2 144 -256 R180
WINDOW 0 36 80 Left 2
WINDOW 3 36 40 Left 2
SYMATTR InstName L2
SYMATTR Value 23.9µ
SYMATTR Type ind
SYMBOL cap 416 -352 R0
SYMATTR InstName C1
SYMATTR Value 200µ
SYMBOL nmos -128 -32 R0
SYMATTR InstName M1
SYMATTR Value IRFP250N
SYMBOL voltage -640 -352 R0
WINDOW 123 0 0 Left 0
WINDOW 39 0 0 Left 0
SYMATTR InstName Vin
SYMATTR Value 18
SYMBOL res 544 -368 R0
WINDOW 3 34 80 Left 2
SYMATTR Value 48
SYMATTR InstName RLoad
SYMBOL cap -432 -336 R0
SYMATTR InstName C2
SYMATTR Value 100µ
SYMBOL PowerProducts\\LT1243 -512 320 R0
SYMATTR InstName U1
SYMBOL cap -832 528 R0
SYMATTR InstName C3
SYMATTR Value 4.4n
SYMBOL res -832 368 R0
SYMATTR InstName R2
SYMATTR Value 5.6k
SYMBOL res -96 304 R0
SYMATTR InstName Rcs
SYMATTR Value 0.05
SYMBOL res -176 368 R90
WINDOW 0 0 56 VBottom 2
WINDOW 3 32 56 VTop 2
SYMATTR InstName R3
SYMATTR Value 1k
SYMBOL cap -320 432 R0
SYMATTR InstName C4
SYMATTR Value 220p
SYMBOL res -752 208 R90
WINDOW 0 0 56 VBottom 2
WINDOW 3 32 56 VTop 2
SYMATTR InstName R4
SYMATTR Value 10k
SYMBOL cap -768 144 R90
WINDOW 0 0 32 VBottom 2
WINDOW 3 32 32 VTop 2
SYMATTR InstName C5
SYMATTR Value 10n
SYMBOL cap -928 384 R0
SYMATTR InstName C6
SYMATTR Value 100n
SYMBOL Optos\\PC817A 480 240 M0
SYMATTR InstName U2
SYMBOL res 272 336 R0
SYMATTR InstName R5
SYMATTR Value 1k
SYMBOL cap 176 368 R0
SYMATTR InstName C7
SYMATTR Value 100n
SYMBOL res 608 32 R0
SYMATTR InstName R7
SYMATTR Value 430
SYMBOL zener 784 416 R180
WINDOW 0 24 64 Left 2
WINDOW 3 24 0 Left 2
SYMATTR InstName D2
SYMATTR Value BZX84B24VL
SYMATTR Description Diode
SYMATTR Type diode
SYMBOL res 752 80 R0
SYMATTR InstName R9
SYMATTR Value 4.7k
SYMBOL res -272 224 R180
WINDOW 0 36 76 Left 2
WINDOW 3 36 40 Left 2
SYMATTR InstName R6
SYMATTR Value 15
SYMBOL cap -320 -288 R0
SYMATTR InstName C8
SYMATTR Value 22n
SYMBOL res -224 -304 R0
SYMATTR InstName R8
SYMATTR Value 10k
SYMBOL schottky 288 -368 R270
WINDOW 0 32 32 VTop 2
WINDOW 3 0 32 VBottom 2
SYMATTR InstName D5
SYMATTR Value MBR20100CT
SYMATTR Description Diode
SYMATTR Type diode
SYMBOL zener 784 544 R180
WINDOW 0 24 64 Left 2
WINDOW 3 24 0 Left 2
SYMATTR InstName D1
SYMATTR Value BZX84B22VL
SYMATTR Description Diode
SYMATTR Type diode
SYMBOL res -96 -400 R90
WINDOW 0 0 56 VBottom 2
WINDOW 3 32 56 VTop 2
SYMATTR InstName R1
SYMATTR Value 3.76m
SYMBOL res 240 -400 R90
WINDOW 0 0 56 VBottom 2
WINDOW 3 32 56 VTop 2
SYMATTR InstName R10
SYMATTR Value 13.17m
SYMBOL ind -96 -256 R0
SYMATTR InstName L3
SYMATTR Value 390n
SYMBOL zener -144 144 R180
WINDOW 0 24 64 Left 2
WINDOW 3 24 0 Left 2
SYMATTR InstName D4
SYMATTR Value BZX84B18VL
SYMATTR Description Diode
SYMATTR Type diode
SYMBOL cap 32 -64 R0
SYMATTR InstName C9
SYMATTR Value 470n
SYMBOL res 32 0 R0
SYMATTR InstName R12
SYMATTR Value 1k
SYMBOL res -256 96 R0
SYMATTR InstName R13
SYMATTR Value 100k
SYMBOL schottky -144 -144 R90
WINDOW 0 0 32 VBottom 2
WINDOW 3 32 32 VTop 2
SYMATTR InstName D6
SYMATTR Value MBR20100CT
SYMATTR Description Diode
SYMATTR Type diode
SYMBOL res 672 -352 R0
WINDOW 3 34 80 Left 2
SYMATTR Value 10k
SYMATTR InstName RLoad1
TEXT -48 -440 Left 2 !K L1 L2 1
TEXT -1248 -432 Left 2 ;.param Dmax=0.5\n.param fs=60k
TEXT -1248 -256 Left 2 !.tran 0 30m 20m
TEXT 376 -464 Left 2 ;R=if(((time>15m)&(time<21m))|((time>26m)&(time<30m)),480,48)
TEXT -1248 -352 Left 2 !.meas Pin AVG -V(Vin)*I(Vin)\n.meas Pout AVG V(Vout)*I(Rload)\n.meas Efficiency param Pout/Pin
